     9
Mode #0, f = 9.4i cm^-1.
 C      0.25419      0.31370      0.39042      0.07324     -0.02966     -0.05705
 C     -0.55271      0.86430     -0.75827     -0.10065      0.05912      0.10780
 O      0.06699     -1.13022      0.35917      0.01778     -0.02147     -0.10216
 H      1.32472      0.57003      0.28259      0.06396     -0.06074     -0.22299
 H     -0.09200      0.73050      1.35468      0.24929     -0.06924      0.02327
 H     -0.20395      0.44851     -1.71034     -0.27399      0.09893      0.02685
 H     -1.61213      0.60801     -0.64469     -0.09017      0.08828      0.27131
 H     -0.47208      1.96090     -0.81585     -0.07381      0.05957      0.15336
 H      0.56537     -1.56169      1.08235      0.12855     -0.07767     -0.21192
     9
Mode #1, f = 4.1i cm^-1.
 C      0.25419      0.31370      0.39042      0.04907      0.03943     -0.02149
 C     -0.55271      0.86430     -0.75827     -0.08238     -0.10137      0.00341
 O      0.06699     -1.13022      0.35917      0.13137      0.02595      0.11286
 H      1.32472      0.57003      0.28259      0.02473      0.09380     -0.13469
 H     -0.09200      0.73050      1.35468      0.10792      0.09793     -0.02555
 H     -0.20395      0.44851     -1.71034     -0.14005     -0.15840      0.00716
 H     -1.61213      0.60801     -0.64469     -0.05749     -0.15456      0.11565
 H     -0.47208      1.96090     -0.81585     -0.15183     -0.10143     -0.09274
 H      0.56537     -1.56169      1.08235      0.22007      0.11437      0.10436
     9
Mode #2, f = 1.8i cm^-1.
 C      0.25419      0.31370      0.39042      0.07926      0.02916     -0.02316
 C     -0.55271      0.86430     -0.75827      0.12402      0.03668     -0.05106
 O      0.06699     -1.13022      0.35917      0.15467      0.02087     -0.09627
 H      1.32472      0.57003      0.28259      0.07304      0.08818      0.05555
 H     -0.09200      0.73050      1.35468     -0.00316     -0.02941     -0.02749
 H     -0.20395      0.44851     -1.71034      0.20561      0.09493     -0.04660
 H     -1.61213      0.60801     -0.64469      0.12987     -0.02215     -0.12909
 H     -0.47208      1.96090     -0.81585      0.07172      0.04330      0.00062
 H      0.56537     -1.56169      1.08235      0.13086      0.01558     -0.08303
     9
Mode #3, f = 0.4i cm^-1.
 C      0.25419      0.31370      0.39042      0.01167     -0.14411     -0.02614
 C     -0.55271      0.86430     -0.75827      0.02311     -0.13981     -0.03185
 O      0.06699     -1.13022      0.35917      0.01465     -0.14431     -0.03535
 H      1.32472      0.57003      0.28259      0.01242     -0.14165     -0.01325
 H     -0.09200      0.73050      1.35468      0.00070     -0.14964     -0.02767
 H     -0.20395      0.44851     -1.71034      0.03408     -0.13428     -0.03024
 H     -1.61213      0.60801     -0.64469      0.02235     -0.14233     -0.04451
 H     -0.47208      1.96090     -0.81585      0.02174     -0.13941     -0.02529
 H      0.56537     -1.56169      1.08235      0.00778     -0.14705     -0.03217
     9
Mode #4, f = 1.9  cm^-1.
 C      0.25419      0.31370      0.39042      0.06383     -0.03968      0.13848
 C     -0.55271      0.86430     -0.75827      0.08568      0.02144      0.15272
 O      0.06699     -1.13022      0.35917      0.02928     -0.03421      0.08405
 H      1.32472      0.57003      0.28259      0.07080     -0.06162      0.15586
 H     -0.09200      0.73050      1.35468      0.06659     -0.06684      0.15122
 H     -0.20395      0.44851     -1.71034      0.08269      0.04779      0.14005
 H     -1.61213      0.60801     -0.64469      0.07857      0.04298      0.13542
 H     -0.47208      1.96090     -0.81585      0.11252      0.02171      0.19315
 H      0.56537     -1.56169      1.08235      0.01336     -0.07270      0.07216
     9
Mode #5, f = 5.0  cm^-1.
 C      0.25419      0.31370      0.39042      0.13753     -0.00631     -0.08740
 C     -0.55271      0.86430     -0.75827      0.09281      0.00898     -0.04855
 O      0.06699     -1.13022      0.35917     -0.07719      0.01821      0.06230
 H      1.32472      0.57003      0.28259      0.16329     -0.17255     -0.22700
 H     -0.09200      0.73050      1.35468      0.30363      0.13053     -0.08690
 H     -0.20395      0.44851     -1.71034     -0.07164     -0.12682     -0.04954
 H     -1.61213      0.60801     -0.64469      0.06776      0.17372      0.08971
 H     -0.47208      1.96090     -0.81585      0.24652     -0.00793     -0.15513
 H      0.56537     -1.56169      1.08235     -0.06074      0.00999      0.04605
     9
Mode #6, f = 201.8  cm^-1.
 C      0.25419      0.31370      0.39042     -0.04267      0.00507      0.03190
 C     -0.55271      0.86430     -0.75827     -0.01249      0.00194      0.00950
 O      0.06699     -1.13022      0.35917      0.06760     -0.00830     -0.05115
 H      1.32472      0.57003      0.28259     -0.05025      0.03882      0.05629
 H     -0.09200      0.73050      1.35468     -0.07256     -0.02470      0.03616
 H     -0.20395      0.44851     -1.71034     -0.25717     -0.38055      0.08735
 H     -1.61213      0.60801     -0.64469     -0.09634      0.42146      0.17970
 H     -0.47208      1.96090     -0.81585      0.38054     -0.04273     -0.28783
 H      0.56537     -1.56169      1.08235     -0.31582      0.03583      0.23902
     9
Mode #7, f = 257.5  cm^-1.
 C      0.25419      0.31370      0.39042     -0.07531     -0.06567     -0.09005
 C     -0.55271      0.86430     -0.75827     -0.00768      0.15642     -0.03346
 O      0.06699     -1.13022      0.35917      0.06427     -0.09636      0.09947
 H      1.32472      0.57003      0.28259     -0.06655      0.01450     -0.04720
 H     -0.09200      0.73050      1.35468     -0.02472      0.01020     -0.07849
 H     -0.20395      0.44851     -1.71034     -0.03449      0.14650     -0.06995
 H     -1.61213      0.60801     -0.64469     -0.03619      0.14317     -0.06950
 H     -0.47208      1.96090     -0.81585      0.06141      0.10084      0.06960
 H      0.56537     -1.56169      1.08235      0.07005      0.03305      0.09054
     9
Mode #8, f = 311.4  cm^-1.
 C      0.25419      0.31370      0.39042     -0.03893     -0.00132      0.02938
 C     -0.55271      0.86430     -0.75827      0.02120     -0.00169     -0.01771
 O      0.06699     -1.13022      0.35917     -0.02640      0.00692      0.02142
 H      1.32472      0.57003      0.28259     -0.04875      0.06187      0.09169
 H     -0.09200      0.73050      1.35468     -0.10916     -0.04731      0.02731
 H     -0.20395      0.44851     -1.71034     -0.08610     -0.20668      0.03184
 H     -1.61213      0.60801     -0.64469     -0.02412      0.22051      0.05018
 H     -0.47208      1.96090     -0.81585      0.21981     -0.02469     -0.16465
 H      0.56537     -1.56169      1.08235      0.67682     -0.07771     -0.51276
     9
Mode #9, f = 332.4  cm^-1.
 C      0.25419      0.31370      0.39042     -0.00098     -0.21194      0.02847
 C     -0.55271      0.86430     -0.75827     -0.03146      0.01773     -0.04305
 O      0.06699     -1.13022      0.35917      0.02741      0.15478      0.01126
 H      1.32472      0.57003      0.28259     -0.00630     -0.06439      0.00818
 H     -0.09200      0.73050      1.35468      0.00558     -0.06282      0.00188
 H     -0.20395      0.44851     -1.71034     -0.00337      0.01944     -0.01600
 H     -1.61213      0.60801     -0.64469     -0.01075      0.01087     -0.01165
 H     -0.47208      1.96090     -0.81585      0.01727     -0.00099      0.03296
 H      0.56537     -1.56169      1.08235     -0.04818     -0.04561     -0.01846
     9
Mode #10, f = 506.7  cm^-1.
 C      0.25419      0.31370      0.39042      0.11800      0.00952      0.15450
 C     -0.55271      0.86430     -0.75827     -0.10392      0.07397     -0.14837
 O      0.06699     -1.13022      0.35917     -0.00802     -0.06258     -0.00110
 H      1.32472      0.57003      0.28259      0.04834      0.00142      0.02790
 H     -0.09200      0.73050      1.35468      0.01430      0.00523      0.05379
 H     -0.20395      0.44851     -1.71034     -0.00766     -0.01238     -0.03634
 H     -1.61213      0.60801     -0.64469     -0.03455     -0.00897     -0.01590
 H     -0.47208      1.96090     -0.81585     -0.04951      0.04876     -0.07301
 H      0.56537     -1.56169      1.08235     -0.01079     -0.03960     -0.01040
     9
Mode #11, f = 810.8  cm^-1.
 C      0.25419      0.31370      0.39042     -0.12204      0.01384      0.09234
 C     -0.55271      0.86430     -0.75827      0.03173     -0.00363     -0.02403
 O      0.06699     -1.13022      0.35917      0.02868     -0.00322     -0.02168
 H      1.32472      0.57003      0.28259     -0.03670     -0.28233     -0.49422
 H     -0.09200      0.73050      1.35468      0.50260      0.22940      0.14180
 H     -0.20395      0.44851     -1.71034      0.09002     -0.00431      0.00986
 H     -1.61213      0.60801     -0.64469      0.01471     -0.00739     -0.08907
 H     -0.47208      1.96090     -0.81585      0.00130     -0.00013     -0.00075
 H      0.56537     -1.56169      1.08235      0.04958     -0.00573     -0.03759
     9
Mode #12, f = 865.8  cm^-1.
 C      0.25419      0.31370      0.39042     -0.00618     -0.04632     -0.00122
 C     -0.55271      0.86430     -0.75827      0.04634      0.10984      0.04479
 O      0.06699     -1.13022      0.35917     -0.01821     -0.01164     -0.02232
 H      1.32472      0.57003      0.28259      0.00895      0.10908      0.01005
 H     -0.09200      0.73050      1.35468      0.02316      0.10763     -0.00036
 H     -0.20395      0.44851     -1.71034     -0.01433     -0.41365      0.16358
 H     -1.61213      0.60801     -0.64469      0.10082     -0.42684      0.07592
 H     -0.47208      1.96090     -0.81585     -0.34481     -0.06108     -0.44652
 H      0.56537     -1.56169      1.08235      0.03721      0.11246      0.03206
     9
Mode #13, f = 996.7  cm^-1.
 C      0.25419      0.31370      0.39042      0.04251     -0.00461     -0.03246
 C     -0.55271      0.86430     -0.75827     -0.10737      0.01223      0.08103
 O      0.06699     -1.13022      0.35917     -0.00212      0.00032      0.00178
 H      1.32472      0.57003      0.28259     -0.01184     -0.00036     -0.06826
 H     -0.09200      0.73050      1.35468      0.06283     -0.00721      0.03135
 H     -0.20395      0.44851     -1.71034      0.49454     -0.08497      0.20634
 H     -1.61213      0.60801     -0.64469     -0.05513      0.03414     -0.53728
 H     -0.47208      1.96090     -0.81585      0.30038     -0.03408     -0.22665
 H      0.56537     -1.56169      1.08235      0.01584     -0.00348     -0.01306
     9
Mode #14, f = 1020.3  cm^-1.
 C      0.25419      0.31370      0.39042      0.03345     -0.06591      0.05386
 C     -0.55271      0.86430     -0.75827      0.02613     -0.03740      0.04082
 O      0.06699     -1.13022      0.35917     -0.03023     -0.02318     -0.03647
 H      1.32472      0.57003      0.28259     -0.10151      0.29913     -0.18681
 H     -0.09200      0.73050      1.35468     -0.10859      0.30017     -0.18094
 H     -0.20395      0.44851     -1.71034     -0.10833      0.21982     -0.14236
 H     -1.61213      0.60801     -0.64469     -0.07646      0.21636     -0.17007
 H     -0.47208      1.96090     -0.81585     -0.04793      0.03563     -0.07073
 H      0.56537     -1.56169      1.08235      0.21236      0.52744      0.20131
     9
Mode #15, f = 1338.6  cm^-1.
 C      0.25419      0.31370      0.39042     -0.02627     -0.00925     -0.03333
 C     -0.55271      0.86430     -0.75827     -0.03738     -0.00051     -0.04937
 O      0.06699     -1.13022      0.35917     -0.02345     -0.00402     -0.03040
 H      1.32472      0.57003      0.28259      0.10008     -0.08582      0.27802
 H     -0.09200      0.73050      1.35468      0.22701     -0.10045      0.18211
 H     -0.20395      0.44851     -1.71034      0.26880     -0.08213      0.18552
 H     -1.61213      0.60801     -0.64469      0.09501     -0.06238      0.31717
 H     -0.47208      1.96090     -0.81585      0.17433      0.00767      0.22949
 H      0.56537     -1.56169      1.08235      0.26549      0.50417      0.27578
     9
Mode #16, f = 1434.7  cm^-1.
 C      0.25419      0.31370      0.39042     -0.00526      0.00060      0.00396
 C     -0.55271      0.86430     -0.75827     -0.03583      0.00407      0.02708
 O      0.06699     -1.13022      0.35917      0.02267     -0.00258     -0.01716
 H      1.32472      0.57003      0.28259      0.15046     -0.57484      0.32194
 H     -0.09200      0.73050      1.35468     -0.18576      0.57893     -0.29512
 H     -0.20395      0.44851     -1.71034     -0.02491      0.07992     -0.06453
 H     -1.61213      0.60801     -0.64469      0.04376     -0.08223      0.05070
 H     -0.47208      1.96090     -0.81585      0.09488     -0.01074     -0.07157
 H      0.56537     -1.56169      1.08235      0.05158     -0.00586     -0.03900
     9
Mode #17, f = 1578.9  cm^-1.
 C      0.25419      0.31370      0.39042     -0.00718     -0.02477     -0.00579
 C     -0.55271      0.86430     -0.75827     -0.01615     -0.00678     -0.02036
 O      0.06699     -1.13022      0.35917     -0.00485     -0.01207     -0.00459
 H      1.32472      0.57003      0.28259     -0.08604      0.52593     -0.04656
 H     -0.09200      0.73050      1.35468      0.05328      0.50992     -0.15176
 H     -0.20395      0.44851     -1.71034      0.24922     -0.10043      0.14541
 H     -1.61213      0.60801     -0.64469      0.05927     -0.07877      0.28925
 H     -0.47208      1.96090     -0.81585      0.20121     -0.02430      0.26978
 H      0.56537     -1.56169      1.08235     -0.12191     -0.26425     -0.12161
     9
Mode #18, f = 1753.0  cm^-1.
 C      0.25419      0.31370      0.39042     -0.01813     -0.02031     -0.02092
 C     -0.55271      0.86430     -0.75827     -0.00640     -0.04265     -0.00207
 O      0.06699     -1.13022      0.35917      0.00532     -0.01207      0.00884
 H      1.32472      0.57003      0.28259      0.08019      0.14374      0.38091
 H     -0.09200      0.73050      1.35468      0.36314      0.11173      0.16670
 H     -0.20395      0.44851     -1.71034      0.17744      0.31667     -0.01455
 H     -1.61213      0.60801     -0.64469     -0.01505      0.33842      0.13115
 H     -0.47208      1.96090     -0.81585     -0.31934      0.13984     -0.44300
 H      0.56537     -1.56169      1.08235     -0.07857     -0.10907     -0.08767
     9
Mode #19, f = 1860.4  cm^-1.
 C      0.25419      0.31370      0.39042      0.02918     -0.00330     -0.02209
 C     -0.55271      0.86430     -0.75827      0.02553     -0.00290     -0.01931
 O      0.06699     -1.13022      0.35917      0.00391     -0.00044     -0.00295
 H      1.32472      0.57003      0.28259     -0.06088     -0.15176      0.06541
 H     -0.09200      0.73050      1.35468     -0.05692      0.16494      0.02348
 H     -0.20395      0.44851     -1.71034      0.08182     -0.41089      0.28974
 H     -1.61213      0.60801     -0.64469     -0.19644      0.42408     -0.20287
 H     -0.47208      1.96090     -0.81585     -0.49097      0.05568      0.37138
 H      0.56537     -1.56169      1.08235      0.00928     -0.00105     -0.00703
     9
Mode #20, f = 1954.2  cm^-1.
 C      0.25419      0.31370      0.39042     -0.00507     -0.00296     -0.00627
 C     -0.55271      0.86430     -0.75827      0.00312      0.00391      0.00354
 O      0.06699     -1.13022      0.35917     -0.00483     -0.00025     -0.00634
 H      1.32472      0.57003      0.28259      0.02434      0.18464      0.42405
 H     -0.09200      0.73050      1.35468      0.42477      0.13939      0.12095
 H     -0.20395      0.44851     -1.71034     -0.46034     -0.13400     -0.13538
 H     -1.61213      0.60801     -0.64469     -0.02816     -0.18278     -0.46272
 H     -0.47208      1.96090     -0.81585      0.15177     -0.00651      0.20174
 H      0.56537     -1.56169      1.08235     -0.01256     -0.00780     -0.01549
     9
Mode #21, f = 2897.1  cm^-1.
 C      0.25419      0.31370      0.39042      0.05404     -0.00612     -0.04090
 C     -0.55271      0.86430     -0.75827      0.01155     -0.00131     -0.00875
 O      0.06699     -1.13022      0.35917      0.00175     -0.00020     -0.00133
 H      1.32472      0.57003      0.28259     -0.65161     -0.14980      0.00573
 H     -0.09200      0.73050      1.35468     -0.15451      0.24117      0.60443
 H     -0.20395      0.44851     -1.71034     -0.05313      0.11109     -0.00138
 H     -1.61213      0.60801     -0.64469     -0.02841     -0.10181      0.06305
 H     -0.47208      1.96090     -0.81585      0.07750     -0.00884     -0.05864
 H      0.56537     -1.56169      1.08235      0.00081     -0.00012     -0.00055
     9
Mode #22, f = 3124.0  cm^-1.
 C      0.25419      0.31370      0.39042     -0.00064      0.00006      0.00046
 C     -0.55271      0.86430     -0.75827      0.04876     -0.00555     -0.03694
 O      0.06699     -1.13022      0.35917      0.00016     -0.00003     -0.00011
 H      1.32472      0.57003      0.28259      0.08121     -0.00434      0.01072
 H     -0.09200      0.73050      1.35468      0.01112     -0.00592     -0.08046
 H     -0.20395      0.44851     -1.71034     -0.14626      0.29736      0.58942
 H     -1.61213      0.60801     -0.64469     -0.64216     -0.20778      0.00783
 H     -0.47208      1.96090     -0.81585      0.11471     -0.01285     -0.08679
 H      0.56537     -1.56169      1.08235      0.00554     -0.00059     -0.00432
     9
Mode #23, f = 3277.9  cm^-1.
 C      0.25419      0.31370      0.39042      0.01729      0.01645      0.02037
 C     -0.55271      0.86430     -0.75827      0.01317      0.02898      0.01298
 O      0.06699     -1.13022      0.35917      0.00163      0.00546      0.00134
 H      1.32472      0.57003      0.28259     -0.50239     -0.08063      0.17890
 H     -0.09200      0.73050      1.35468      0.29055     -0.17039     -0.42119
 H     -0.20395      0.44851     -1.71034      0.18901     -0.03906     -0.24403
 H     -1.61213      0.60801     -0.64469     -0.28909      0.01462      0.11694
 H     -0.47208      1.96090     -0.81585     -0.03690     -0.42158      0.01419
 H      0.56537     -1.56169      1.08235     -0.04003      0.06918     -0.06327
     9
Mode #24, f = 3512.4  cm^-1.
 C      0.25419      0.31370      0.39042     -0.00687     -0.00021     -0.00902
 C     -0.55271      0.86430     -0.75827      0.01132      0.02902      0.01056
 O      0.06699     -1.13022      0.35917     -0.01675      0.01121     -0.02382
 H      1.32472      0.57003      0.28259      0.29232      0.06675     -0.02513
 H     -0.09200      0.73050      1.35468     -0.09086      0.11011      0.26465
 H     -0.20395      0.44851     -1.71034      0.13098     -0.03260     -0.34933
 H     -1.61213      0.60801     -0.64469     -0.37287      0.02430      0.03155
 H     -0.47208      1.96090     -0.81585     -0.02936     -0.33656      0.01158
 H      0.56537     -1.56169      1.08235      0.28242     -0.35308      0.42622
     9
Mode #25, f = 3653.9  cm^-1.
 C      0.25419      0.31370      0.39042      0.00359     -0.00231      0.00509
 C     -0.55271      0.86430     -0.75827      0.01163     -0.02165      0.01856
 O      0.06699     -1.13022      0.35917     -0.00034      0.00219     -0.00077
 H      1.32472      0.57003      0.28259     -0.08777     -0.03102      0.01263
 H     -0.09200      0.73050      1.35468      0.03055     -0.04441     -0.07688
 H     -0.20395      0.44851     -1.71034      0.15885     -0.23450     -0.32045
 H     -1.61213      0.60801     -0.64469     -0.38155     -0.17357      0.08811
 H     -0.47208      1.96090     -0.81585      0.07362      0.76585     -0.01750
 H      0.56537     -1.56169      1.08235      0.02985     -0.03201      0.04426
     9
Mode #26, f = 3932.5  cm^-1.
 C      0.25419      0.31370      0.39042     -0.00530     -0.00966     -0.00555
 C     -0.55271      0.86430     -0.75827      0.00761      0.00880      0.00872
 O      0.06699     -1.13022      0.35917      0.01588     -0.01329      0.02298
 H      1.32472      0.57003      0.28259      0.31477      0.02849     -0.03610
 H     -0.09200      0.73050      1.35468     -0.11270      0.07690      0.28733
 H     -0.20395      0.44851     -1.71034      0.12305     -0.08343     -0.25967
 H     -1.61213      0.60801     -0.64469     -0.29210     -0.03645      0.05438
 H     -0.47208      1.96090     -0.81585      0.02638     -0.18440      0.06250
 H      0.56537     -1.56169      1.08235     -0.33908      0.41984     -0.51106
